$# LS-DYNA Keyword file created by LS-PrePost(R) V4.10 (Beta)-07Dec2022
$# Created on Dec-21-2022 (07:56:27)
*KEYWORD   
*TITLE
$#                                                                         title
LS-DYNA keyword deck by LS-PrePost
*CONTROL_IMPLICIT_AUTO
         0        11         5       0.0       0.0       0.0         0         0
*CONTROL_IMPLICIT_GENERAL
         1       0.0         2         1         2         0         0         0
*CONTROL_TERMINATION
       0.1         0       0.0       0.01.000000E8         0
*DATABASE_NODFOR
       0.1         0         0         1
*DATABASE_NODOUT
       0.1         0         0         1       0.0         0
*DATABASE_BINARY_D3PLOT
       0.1         0         0         0         0
*MAT_ELASTIC_TITLE
black_mat
         1       0.0    1000.0       0.3       0.0       0.0       0.0
*MAT_ELASTIC_TITLE
gray_mat
         2       0.0   10000.0       0.3       0.0       0.0       0.0
*PART
BLACK
         1         1         1         0         0         0         0         0
*SECTION_SHELL_TITLE
BLACK
         1        12       0.0         4       1.0         0         0         1
       1.0       1.0       1.0       1.0       0.0       0.0       0.0         0
*PART
GREY
         2         2         2         0         0         0         0         0
*SECTION_SHELL_TITLE
GREY
         2        12       0.0         4       1.0         0         0         1
       1.0       1.0       1.0       1.0       0.0       0.0       0.0         0
*DEFINE_CURVE_TITLE
pres_disp
         1         0       1.0       1.0       0.0       0.0         0         0
                 0.0                 1.000
                 1.0                 1.000
*DEFINE_CURVE_TITLE
load
         2         0       1.0       1.0       0.0       0.0         0         0
                 0.0                 1.000
                 1.0                 1.000
*BOUNDARY_PRESCRIBED_MOTION_NODE
1	1	2	1	-0	01.00000E28	0.0
1	2	2	1	-4.5e-05	01.00000E28	0.0
2	2	2	1	-4.5e-05	01.00000E28	0.0
5	2	2	1	-4.5e-05	01.00000E28	0.0
7	2	2	1	-4.5e-05	01.00000E28	0.0
17	2	2	1	-4.5e-05	01.00000E28	0.0
19	2	2	1	-4.5e-05	01.00000E28	0.0
21	2	2	1	-4.5e-05	01.00000E28	0.0
32	2	2	1	-4.5e-05	01.00000E28	0.0
35	2	2	1	-4.5e-05	01.00000E28	0.0
41	2	2	1	-4.5e-05	01.00000E28	0.0
43	2	2	1	-4.5e-05	01.00000E28	0.0
45	2	2	1	-4.5e-05	01.00000E28	0.0
53	2	2	1	-4.5e-05	01.00000E28	0.0
55	2	2	1	-4.5e-05	01.00000E28	0.0
57	2	2	1	-4.5e-05	01.00000E28	0.0
65	2	2	1	-4.5e-05	01.00000E28	0.0
75	2	2	1	-4.5e-05	01.00000E28	0.0
77	2	2	1	-4.5e-05	01.00000E28	0.0
79	2	2	1	-4.5e-05	01.00000E28	0.0
$ ... 107 like lines cut
*DATABASE_HISTORY_NODE_ID
1
2
5
7
17
19
21
32
35
41
43
45
53
55
57
65
75
77
79
87
$ ... 220 like lines cut
*ELEMENT_SHELL
	1	2	1	2	3	4	0	0	0	0
	2	2	2	5	6	3	0	0	0	0
	3	2	5	7	8	6	0	0	0	0
	4	2	4	3	9	10	0	0	0	0
	5	1	3	6	11	9	0	0	0	0
	6	1	6	8	12	11	0	0	0	0
	7	1	10	9	13	14	0	0	0	0
	8	1	9	11	15	13	0	0	0	0
	9	2	11	12	16	15	0	0	0	0
	10	2	7	17	18	8	0	0	0	0
	11	2	17	19	20	18	0	0	0	0
	12	2	19	21	22	20	0	0	0	0
	13	1	8	18	23	12	0	0	0	0
	14	2	18	20	24	23	0	0	0	0
	15	2	20	22	25	24	0	0	0	0
	16	2	12	23	26	16	0	0	0	0
	17	1	23	24	27	26	0	0	0	0
	18	2	24	25	28	27	0	0	0	0
	19	2	29	30	31	32	0	0	0	0
	20	2	30	33	34	31	0	0	0	0
$ ... 5420 like lines cut
*NODE
	1	0	0	0.0	0	0
	2	0.0111111	0	0.0	0	0
	3	0.0111111	0.01	0.0	0	0
	4	0	0.01	0.0	0	0
	5	0.0222222	0	0.0	0	0
	6	0.0222222	0.01	0.0	0	0
	7	0.0333333	0	0.0	0	0
	8	0.0333333	0.01	0.0	0	0
	9	0.0111111	0.02	0.0	0	0
	10	0	0.02	0.0	0	0
	11	0.0222222	0.02	0.0	0	0
	12	0.0333333	0.02	0.0	0	0
	13	0.0111111	0.03	0.0	0	0
	14	0	0.03	0.0	0	0
	15	0.0222222	0.03	0.0	0	0
	16	0.0333333	0.03	0.0	0	0
	17	0.0444444	0	0.0	0	0
	18	0.0444444	0.01	0.0	0	0
	19	0.0555556	0	0.0	0	0
	20	0.0555556	0.01	0.0	0	0
$ ... 5541 like lines cut
*SET_SHELL_LIST_TITLE
BLACK
	1	0.0	0.0	0.0	0.0
	5	6	7	8	13	17	28	29
	30	31	32	33	34	35	36	37
	38	39	40	41	44	56	62	67
	68	69	70	71	72	73	74	75
	78	86	89	93	94	95	97	98
	102	103	104	105	106	107	108	109
	110	111	112	113	115	118	120	122
	123	124	125	126	127	128	129	130
	131	132	133	134	135	136	137	138
	139	142	143	145	146	147	148	149
	151	152	158	159	162	165	166	167
	168	169	170	171	172	173	174	175
	176	177	178	179	180	181	182	183
	184	185	186	187	188	189	190	191
	192	193	194	196	197	199	200	212
	213	214	215	216	217	219	220	221
	222	224	225	227	228	232	235	236
	238	239	243	252	286	287	288	289
	291	292	293	294	295	296	297	298
$ ... 357 like lines cut
*SET_SHELL_LIST_TITLE
GREY
	2	0.0	0.0	0.0	0.0
	1	2	3	4	9	10	11	12
	14	15	16	18	19	20	21	22
	23	24	25	26	27	42	43	45
	46	47	48	49	50	51	52	53
	54	55	57	58	59	60	61	63
	64	65	66	76	77	79	80	81
	82	83	84	85	87	88	90	91
	92	96	99	100	101	114	116	117
	119	121	140	141	144	150	153	154
	155	156	157	160	161	163	164	195
	198	201	202	203	204	205	206	207
	208	209	210	211	218	223	226	229
	230	231	233	234	237	240	241	242
	244	245	246	247	248	249	250	251
	253	254	255	256	257	258	259	260
	261	262	263	264	265	266	267	268
	269	270	271	272	273	274	275	276
	277	278	279	280	281	282	283	284
	285	290	303	306	309	310	311	312
$ ... 286 like lines cut
*END
