*Material, name=BLACK
*Density
1750.,
*Elastic
 7e+10, 0.3
**  Use the information in the header to complete these fields under MATERIAL
*Material, name=GREY
*Density
2500.,
*Elastic
 1e+11, 0.25
**
** STEP: Step-1
**
*Step, name=Step-1, nlgeom=No
*Static
1., 1., 1e-05, 1.
**
** BOUNDARY CONDITIONS
**
*Nset, nset=NODE_1
1
*Nset, nset=NODE_2
2
*Nset, nset=NODE_5
5
*Nset, nset=NODE_7
7
*Nset, nset=NODE_17
17
*Nset, nset=NODE_19
19
*Nset, nset=NODE_21
21
*Nset, nset=NODE_32
32
*Nset, nset=NODE_35
35
*Nset, nset=NODE_41
41
*Nset, nset=NODE_43
43
*Nset, nset=NODE_45
45
*Nset, nset=NODE_53
53
*Nset, nset=NODE_55
55
*Nset, nset=NODE_57
57
*Nset, nset=NODE_65
65
*Nset, nset=NODE_75
75
*Nset, nset=NODE_77
77
*Nset, nset=NODE_79
79
*Nset, nset=NODE_87
87
** ... 440 like lines cut
*Nset, nset=NODE_BOUNDARY
1,	2,	5,	7,	17,	19,	21,	32,	35,	41,	43,	45,	53,	55,	57,	65
75,	77,	79,	87,	89,	91,	99,	103,	105,	107,	115,	117,	119,	127,	129,	131
142,	145,	153,	155,	157,	165,	167,	169,	177,	179,	181,	189,	191,	193,	201,	203
205,	213,	215,	217,	225,	227,	229,	237,	239,	241,	249,	251,	253,	261,	263,	265
276,	279,	281,	287,	289,	291,	299,	301,	303,	304,	307,	310,	527,	530,	533,	742
745,	748,	963,	966,	969,	1184,	1187,	1190,	1377,	1380,	1383,	1556,	1559,	1562,	1745,	1748
1751,	1920,	1923,	1926,	2059,	2062,	2065,	2182,	2185,	2188,	2308,	2432,	2567,	2718,	2879,	3064
3249,	3252,	3255,	3461,	3641,	3800,	3803,	3806,	3939,	4102,	4311,	4314,	4317,	4542,	4545,	4548
4799,	4802,	4805,	5027,	5219,	5404,	5561,	5559,	5557,	5556,	5555,	5548,	5543,	5540,	5536,	5534
5533,	5532,	5525,	5520,	5519,	5518,	5516,	5514,	5513,	5512,	5505,	5504,	5503,	5496,	5495,	5494
5487,	5482,	5481,	5479,	5477,	5476,	5475,	5468,	5467,	5466,	5459,	5452,	5451,	5450,	5443,	5442
5441,	5434,	5433,	5432,	5425,	5420,	5418,	5416,	5415,	5413,	5414,	5410,	5406,	5225,	5030,	4807
4554,	4319,	4108,	3941,	3808,	3647,	3472,	3468,	3464,	3265,	3261,	3257,	3078,	3074,	3070,	2885
2720,	2569,	2434,	2311,	2190,	2075,	2071,	2067,	1936,	1932,	1928,	1761,	1757,	1753,	1572,	1568
1564,	1393,	1389,	1385,	1200,	1196,	1192,	979,	975,	971,	756,	539,	312,	14,	10,	4
*BOUNDARY
NODE_1, 1, 1, -0.5
NODE_1, 2, 2, -0.45
NODE_2, 2, 2, -0.45
NODE_5, 2, 2, -0.45
NODE_7, 2, 2, -0.45
NODE_17, 2, 2, -0.45
NODE_19, 2, 2, -0.45
NODE_21, 2, 2, -0.45
NODE_32, 2, 2, -0.45
NODE_35, 2, 2, -0.45
NODE_41, 2, 2, -0.45
NODE_43, 2, 2, -0.45
NODE_45, 2, 2, -0.45
NODE_53, 2, 2, -0.45
NODE_55, 2, 2, -0.45
NODE_57, 2, 2, -0.45
NODE_65, 2, 2, -0.45
NODE_75, 2, 2, -0.45
NODE_77, 2, 2, -0.45
NODE_79, 2, 2, -0.45
** ... 224 like lines cut
**
** OUTPUT REQUESTS
**
*Restart, write, frequency=0
**
** FIELD OUTPUT: F-Output-1
**
*Output, field
*Node Output
U,
**
** FIELD OUTPUT: F-Output-2
**
*Element Output, directions=YES
S, E,
** Printing U and F
*NODE PRINT,NSET=NODE_BOUNDARY
U, RF,
*End Step
